1	Kazushige Nagashima
1	Jerry Sags
1	Category:Sport in Nunavut
1	France at the 1936 Summer Olympics
1	Urko Pardo
1	Giorgio Frezzolini
1	2007 World Junior Curling Championships
1	Category:Sport in Thuringia
0	Kovalchick Convention and Athletic Complex
1	Category:Football competitions in Tonga
1	Category:Handball in Algeria
1	Deck McGuire
0	1928 World Table Tennis Championships
0	File:Uncaf logo.png
1	Category:Guam at the East Asian Games
1	Luka Đorđevi
1	2013 PDC World Youth Championship
0	Vainon Willis
0	2013–14 Kansas Jayhawks women's basketball team
1	Bulgarian Open
1	PW Botha
1	Clayson Henrique da Silva Vieira
0	2015–16 Wisconsin Badgers men's basketball team
0	1974–75 St. John's Redmen basketball team
1	Category:1966–67 in Hungarian ice hockey
1	Category:1928 UCI Road World Championships
0	LS-DYNA
0	Derek Paravicini
0	Frogs in culture
0	Category:Ashevillians
0	File:Hellraiserdeader.jpg
0	National Coalition for Marine Conservation
0	Category:AiT/Planet Lar titles
0	Mallee emu-wren
0	Wikipedia:WikiProject Spam/LinkReports/kennyhotz.com
0	Give Me a Shake
0	List of First Ministers of Scotland
0	Simon Mayo Drivetime
0	File:Manthri Gari Viyyankudu.jpg
0	Wikipedia:WikiProject Spam/LinkReports/bb-free.com
1	2009 Challenge Tour graduates
0	Category:Racing drivers by European series
1	Category:WikiProject U.S. Roads/Ohio participants
0	The Lace Guild
0	Wikipedia:Sockpuppet investigations/67.80.192.98/Archive
0	Category:Landforms of Polk County, Texas
0	File:South end of ON 406.png
1	Category:1660s disestablishments in the Spanish West Indies
0	2017 in Armenia
0	Ha Joo-hee
1	2001–02 Elitserien
0	Draft:New British Latin
0	Wikipedia:Articles for deletion/Warwick Castle, Maida Vale
